270

 O       2.49000000       1.56380000       0.43720000
 O      -0.15740000       2.89990000       0.47880000
 O       1.17290000      -0.73880000       1.94420000
 O      -0.30760000      -2.14090000      -0.07740000
 O       2.60450000       0.49760000      -2.41730000
 O      -2.26200000       1.14080000       0.84450000
 O       3.30290000      -1.40640000      -0.54400000
 O       0.86980000       2.31300000      -3.34260000
 O       1.15710000      -2.47330000      -2.35590000
 O      -2.78640000      -1.06640000      -0.65370000
 O      -3.17460000       1.07350000      -2.38620000
 O      -0.08360000       3.67100000       3.10440000
 O       1.91470000       1.60310000       4.03080000
 O      -2.31400000      -2.19100000       2.28800000
 O       4.28720000       2.12950000       2.57100000
 O      -3.41150000       3.32270000      -0.89800000
 O      -2.67230000       0.78340000       3.53330000
 O       4.52700000       3.77120000       0.16290000
 O      -1.88450000      -2.54130000      -3.30050000
 O      -0.27450000      -1.05700000      -5.12500000
 O       2.85930000       4.28360000      -3.54220000
 O       0.34800000       6.14850000       0.47540000
 O       3.37770000      -1.68620000      -4.40720000
 O       2.84260000       5.50990000       1.39700000
 O       2.89820000      -2.30960000       3.97260000
 O       1.93240000       0.97000000      -5.69230000
 O      -0.64440000      -4.79950000       0.81080000
 O      -1.05190000       5.87800000      -1.95240000
 O       5.49750000      -0.36140000       2.84750000
 O      -2.69990000       1.00850000      -5.07790000
 O      -1.11960000      -0.75080000       5.29400000
 O      -2.24380000       3.67600000      -4.52580000
 O       6.60660000       1.14540000      -0.71360000
 O       5.48280000       3.54370000      -2.65820000
 O      -5.56620000       0.56080000      -0.13550000
 O       3.53890000      -4.63240000      -1.52700000
 O      -3.04450000       3.76090000       3.99070000
 O      -0.90430000      -4.94960000      -2.91740000
 O       4.97200000       1.82170000      -4.82230000
 O      -5.20490000      -1.57040000      -1.98550000
 O       1.67530000       6.53960000      -2.78320000
 O      -4.73920000       4.03750000       1.76680000
 O       0.29990000       6.45330000       3.48750000
 O      -5.56680000       1.48190000       2.70380000
 O      -3.38310000      -4.76550000       1.16970000
 O      -1.77280000      -3.65710000       4.63210000
 O       1.29190000      -1.00290000       6.52760000
 O       3.87040000       0.55390000       5.97110000
 O       0.01520000       5.35240000      -5.38570000
 O       6.51530000      -2.92360000      -1.37380000
 O       2.67150000       5.63010000       4.31940000
 O       4.65890000      -4.24490000       2.85220000
 O       5.90180000       4.34800000       2.78150000
 O       3.55000000      -5.69890000       0.99590000
 O      -3.88750000      -1.90210000      -5.14660000
 O      -5.06720000      -0.96130000       3.85480000
 O       7.40730000      -1.41800000       0.86440000
 O       6.50570000      -1.47260000      -3.88840000
 O       1.87730000       3.63910000      -6.78410000
 O       1.18160000      -4.52370000       4.91600000
 O       0.72750000      -6.15500000       2.82500000
 O       7.74550000       2.71460000       1.14860000
 O      -5.04400000       2.58850000      -4.82010000
 O       3.00890000      -4.32040000      -5.45640000
 O      -3.99000000       5.93810000      -3.35660000
 O      -5.36460000      -3.45250000       2.41460000
 O       3.05500000       7.99820000      -0.70540000
 O      -6.69200000       1.81820000      -2.53120000
 O       4.99560000       6.57740000      -2.73790000
 O      -3.55550000      -5.78140000      -1.50930000
 O       4.84760000       4.21330000       5.35320000
 O       1.25360000      -2.04300000      -7.58820000
 O       5.72870000       6.67110000       0.17510000
 O       2.29890000      -6.67940000      -2.96620000
 O      -2.47520000       6.43300000       4.70440000
 O       3.49560000       8.03380000       1.93840000
 O      -1.78770000       1.63220000       7.56520000
 O      -6.19680000       4.88680000      -2.12950000
 O       1.31270000       3.68690000       7.41830000
 O       4.65360000       3.53270000      -6.81520000
 O       7.18980000      -3.35570000       2.76150000
 O       6.18600000      -1.18140000       5.63200000
 O       0.80580000       8.82280000       1.37800000
 O       0.72500000      -6.05460000      -5.12580000
 O      -2.59050000      -0.41470000      -7.84630000
 O       6.48100000       1.86700000       5.62550000
 O       2.17920000       0.81440000      -8.43490000
 O      -3.14170000      -1.06420000       7.09830000
 O       5.89010000      -5.73710000      -2.15810000
 O      -1.85030000       8.09710000      -3.67600000
 H       3.21280000       2.10470000       0.75530000
 H       2.76250000       1.29010000      -0.43860000
 H       0.76750000       2.76800000       0.27060000
 H      -0.17980000       2.97920000       1.43240000
 H       1.53270000      -0.13990000       1.28990000
 H       1.03210000      -0.19280000       2.71770000
 H       0.16840000      -1.66260000       0.60150000
 H       0.31310000      -2.20910000      -0.80290000
 H       3.15280000       0.31640000      -3.18060000
 H       2.67000000      -0.29300000      -1.88160000
 H      -2.57470000       1.23350000       1.74440000
 H      -1.50080000       1.71890000       0.79420000
 H       4.10420000      -1.08520000      -0.13040000
 H       2.78810000      -1.76690000       0.17800000
 H       0.15570000       2.51270000      -2.73730000
 H       1.28930000       1.53700000      -2.97110000
 H       1.26620000      -3.41380000      -2.49640000
 H       0.50510000      -2.20780000      -3.00460000
 H      -1.99390000      -1.56150000      -0.86110000
 H      -2.49310000      -0.38740000      -0.04610000
 H      -2.85000000       0.34250000      -1.86040000
 H      -3.13890000       0.75490000      -3.28810000
 H      -0.87840000       3.60550000       3.63370000
 H       0.12080000       4.60600000       3.09300000
 H       2.67260000       1.71600000       3.45720000
 H       1.45240000       2.44000000       3.98510000
 H      -2.59990000      -2.60450000       1.47350000
 H      -2.51210000      -1.26220000       2.16810000
 H       4.81650000       1.34250000       2.44180000
 H       4.92010000       2.80860000       2.80450000
 H      -2.53450000       3.33110000      -0.51460000
 H      -3.39940000       2.58580000      -1.50880000
 H      -2.47720000       1.68180000       3.80010000
 H      -3.45930000       0.55210000       4.02660000
 H       4.82960000       3.77790000      -0.74520000
 H       5.26650000       3.42100000       0.65970000
 H      -2.48430000      -2.48200000      -4.04410000
 H      -1.75510000      -3.48080000      -3.17080000
 H      -0.76860000      -0.66010000      -5.84230000
 H      -0.88310000      -1.68210000      -4.73120000
 H       2.46570000       5.13110000      -3.33490000
 H       2.17120000       3.64630000      -3.35140000
 H       0.26550000       7.09150000       0.61690000
 H      -0.00370000       6.00600000      -0.40340000
 H       2.78370000      -1.81770000      -3.66820000
 H       3.37010000      -2.52240000      -4.87300000
 H       3.55180000       5.08820000       0.91170000
 H       2.12660000       5.57740000       0.76530000
 H       2.37290000      -1.92880000       3.26880000
 H       2.82260000      -1.68450000       4.69360000
 H       1.58390000       1.42640000      -4.92650000
 H       1.60120000       0.07570000      -5.61010000
 H      -1.47510000      -4.73180000       1.28150000
 H      -0.46720000      -3.90910000       0.50750000
 H      -1.66750000       6.38600000      -2.48090000
 H      -1.37220000       4.97780000      -2.00980000
 H       6.22940000      -0.64540000       2.29990000
 H       5.75680000      -0.60000000       3.73750000
 H      -2.06270000       1.62200000      -4.71200000
 H      -2.55240000       1.04460000      -6.02300000
 H      -0.94440000      -1.43710000       4.65010000
 H      -1.81750000      -0.22610000       4.90170000
 H      -2.74640000       4.41650000      -4.18640000
 H      -1.42810000       4.06440000      -4.84210000
 H       6.32500000       1.64880000      -1.47750000
 H       6.98850000       0.34760000      -1.07940000
 H       5.38850000       2.92580000      -3.38310000
 H       4.90260000       4.27030000      -2.88520000
 H      -5.67970000       0.88020000       0.75960000
 H      -4.74930000       0.96200000      -0.43180000
 H       3.49580000      -5.00310000      -0.64560000
 H       3.67000000      -3.69470000      -1.38680000
 H      -3.67310000       3.86550000       3.27650000
 H      -3.53930000       3.98060000       4.78000000
 H      -0.77800000      -5.18840000      -3.83570000
 H      -0.86210000      -5.78110000      -2.44520000
 H       4.97390000       2.33900000      -5.62770000
 H       4.14250000       1.34480000      -4.84530000
 H      -4.25280000      -1.65460000      -2.03550000
 H      -5.35210000      -0.90620000      -1.31210000
 H       0.78090000       6.50620000      -2.44380000
 H       2.21500000       6.73820000      -2.01810000
 H      -4.32070000       3.85060000       0.92650000
 H      -5.04560000       3.18540000       2.07710000
 H      -0.60370000       6.71630000       3.31270000
 H       0.78390000       6.72440000       2.70750000
 H      -5.28660000       0.63870000       3.05980000
 H      -6.34020000       1.71420000       3.21770000
 H      -3.60930000      -5.48240000       1.76220000
 H      -3.77340000      -5.01420000       0.33190000
 H      -2.41520000      -4.31160000       4.90650000
 H      -2.15970000      -3.25160000       3.85610000
 H       1.12410000      -1.63580000       7.22580000
 H       0.42540000      -0.79700000       6.17700000
 H       3.74190000       0.54570000       6.91960000
 H       3.04660000       0.89220000       5.62020000
 H      -0.68960000       5.74060000      -5.90420000
 H       0.28090000       6.04740000      -4.78360000
 H       6.48680000      -2.51930000      -2.24100000
 H       6.35180000      -3.85260000      -1.53670000
 H       1.78320000       5.97170000       4.21740000
 H       2.95560000       5.43010000       3.42750000
 H       4.02980000      -3.77640000       3.40080000
 H       4.77370000      -5.09000000       3.28680000
 H       6.75090000       4.78510000       2.71550000
 H       5.53490000       4.66010000       3.60870000
 H       3.98750000      -5.15600000       1.65170000
 H       4.03480000      -6.52420000       1.00550000
 H      -4.36450000      -1.09490000      -5.33930000
 H      -4.57140000      -2.55420000      -4.99390000
 H      -5.22710000      -1.25100000       4.75300000
 H      -5.23250000      -1.73730000       3.31930000
 H       8.20020000      -1.12910000       0.41250000
 H       6.88780000      -1.84880000       0.18560000
 H       5.96780000      -0.74800000      -4.20760000
 H       6.75910000      -1.94960000      -4.67870000
 H       1.69760000       2.74170000      -6.50380000
 H       1.47530000       4.18630000      -6.10940000
 H       0.25560000      -4.28160000       4.90650000
 H       1.64730000      -3.69620000       4.79440000
 H       0.35030000      -5.66630000       2.09350000
 H       0.98480000      -5.48250000       3.45570000
 H       7.39770000       2.03700000       0.56880000
 H       7.94680000       2.25360000       1.96290000
 H      -5.37260000       1.77360000      -5.19990000
 H      -4.09570000       2.54540000      -4.94350000
 H       2.28230000      -4.93980000      -5.52380000
 H       3.06980000      -3.92630000      -6.32660000
 H      -4.84060000       5.63870000      -3.03560000
 H      -4.14980000       6.18230000      -4.26820000
 H      -6.05800000      -3.45480000       1.75480000
 H      -4.62230000      -3.87660000       1.98400000
 H       3.09550000       7.69960000       0.20310000
 H       3.90960000       8.39900000      -0.86460000
 H      -6.07790000       2.13610000      -3.19310000
 H      -6.14700000       1.33300000      -1.91160000
 H       4.46520000       6.08650000      -3.36560000
 H       5.66440000       7.00590000      -3.27210000
 H      -2.81460000      -5.44390000      -2.01260000
 H      -4.31830000      -5.61220000      -2.06230000
 H       4.95430000       5.11360000       5.66010000
 H       3.93690000       4.16510000       5.06270000
 H       0.81670000      -1.86290000      -6.75580000
 H       1.82140000      -1.28550000      -7.73010000
 H       5.52760000       5.80790000       0.53650000
 H       5.55790000       6.58450000      -0.76270000
 H       1.91440000      -7.32010000      -2.36790000
 H       2.61020000      -5.97580000      -2.39680000
 H      -1.97930000       6.20010000       5.48930000
 H      -2.67360000       5.59420000       4.28810000
 H       3.57600000       7.08650000       2.05010000
 H       4.38760000       8.36450000       2.04440000
 H      -1.84890000       0.68830000       7.41830000
 H      -1.00850000       1.74020000       8.11050000
 H      -6.88530000       4.22490000      -2.19450000
 H      -5.47620000       4.44060000      -1.68470000
 H       1.02740000       3.32250000       8.25620000
 H       1.25060000       2.95500000       6.80460000
 H       4.99520000       4.37690000      -7.10980000
 H       3.71510000       3.68110000      -6.69870000
 H       7.18080000      -2.62270000       2.14600000
 H       6.26960000      -3.60250000       2.85420000
 H       6.01030000      -2.09790000       5.41880000
 H       5.33160000      -0.82270000       5.87180000
 H       1.67520000       9.10530000       1.66160000
 H       0.31480000       9.63640000       1.26290000
 H       0.88810000      -6.52410000      -5.94390000
 H       1.19030000      -6.56220000      -4.46090000
 H      -3.05020000       0.33690000      -8.22050000
 H      -3.21930000      -1.13400000      -7.90480000
 H       5.85130000       1.16580000       5.79250000
 H       5.94150000       2.62740000       5.40880000
 H       2.82690000       0.26410000      -8.87530000
 H       2.59940000       1.06870000      -7.61330000
 H      -2.54580000      -1.38580000       6.42170000
 H      -2.88390000      -1.53700000       7.88960000
 H       4.99300000      -5.51310000      -1.91070000
 H       5.91540000      -5.61360000      -3.10690000
 H      -2.08170000       7.86840000      -4.57620000
 H      -1.58980000       9.01710000      -3.72150000
